Version 4
SHEET 1 1960 948
WIRE 992 -160 992 -224
WIRE 992 -160 928 -160
WIRE 1056 -160 992 -160
WIRE 928 -96 928 -160
WIRE 1056 -96 1056 -160
WIRE 464 -48 464 -80
WIRE 464 -48 336 -48
WIRE 592 -48 464 -48
WIRE 736 -16 736 -80
WIRE 848 -16 736 -16
WIRE 128 16 128 -32
WIRE 336 32 336 -48
WIRE 592 32 592 -48
WIRE 464 80 400 80
WIRE 528 80 464 80
WIRE 736 96 736 -16
WIRE 848 96 736 96
WIRE 336 192 336 128
WIRE 464 192 464 80
WIRE 464 192 336 192
WIRE 736 208 736 96
WIRE 848 208 736 208
WIRE 128 224 128 96
WIRE 336 288 336 192
WIRE 592 304 592 128
WIRE 1056 384 1056 272
WIRE 336 416 336 368
WIRE 128 432 128 368
WIRE 1008 480 816 480
WIRE 816 560 816 480
WIRE 864 560 816 560
WIRE 1008 576 1008 480
WIRE 1008 576 928 576
WIRE 1136 576 1008 576
WIRE 736 592 736 208
WIRE 864 592 736 592
WIRE 128 640 128 512
WIRE 736 672 736 592
WIRE 736 784 736 736
FLAG 1136 576 OUT
FLAG 1056 384 0
FLAG 736 784 0
FLAG 128 640 0
FLAG 128 368 Vcc
FLAG 896 544 Vcc
FLAG 128 -32 -Vcc
FLAG 128 224 0
FLAG 896 608 -Vcc
FLAG 992 -224 Vcc
FLAG 336 416 0
FLAG 464 -80 Vcc
FLAG 592 304 F1
FLAG 736 -80 F1
SYMBOL cap 720 672 R0
SYMATTR InstName C1
SYMATTR Value 1µ
SYMBOL NE555-1 848 -16 R0
SYMATTR InstName U1
SYMBOL voltage 128 416 R0
WINDOW 123 0 0 Left 0
WINDOW 39 0 0 Left 0
SYMATTR InstName Vcc
SYMATTR Value 12
SYMBOL voltage 128 0 R0
WINDOW 123 0 0 Left 0
WINDOW 39 0 0 Left 0
SYMATTR InstName -Vcc
SYMATTR Value 12
SYMBOL res 320 272 R0
SYMATTR InstName R4
SYMATTR Value 1k
SYMBOL pnp 528 128 M180
SYMATTR InstName Q2
SYMBOL pnp 400 128 R180
SYMATTR InstName Q3
SYMBOL Opamps\\UniversalOpamp2 896 576 R0
SYMATTR InstName LM833
TEXT 1192 264 Left 2 !.tran 1m
TEXT 1192 208 Left 2 !.lib NE555.sub
TEXT 1128 328 Left 2 ;NE555 Custom Symbol
TEXT 1200 160 Left 2 !.lib ".\\LM833.LIB"
